36
Lattice="7.773847323951319 0.0106250420550563 0.1659651710499431 0.0115031548412049 7.76620298004127 -0.2197466730429261 0.6885949910799365 -0.4803926074428649 18.811000193969672" Properties=species:S:1:pos:R:3 pbc="T T T"
H        4.86140458       4.15832349       0.11946066
H        4.66439758       5.94452249       2.03106866
H        3.31493158       5.41387049       1.02375666
H        5.06042958       4.63717349       6.83736266
H        5.89099358       4.16676349       1.41028566
H        6.92409058       3.66898949       5.57733666
H        0.70259158       5.44441249       4.73704566
H        7.61141058       7.07350349       1.26693866
H        6.84355958       6.72676449       3.45295366
H        2.59050558       4.77864349       5.84375066
H        6.91236158       5.68961349       5.66509766
H        4.25563158       4.53117149      10.50170666
H        4.44274458       5.36152549       4.59312366
H        2.43566058       5.21635749       3.16706366
H        4.61278658       5.09783549       9.00949866
H        3.19165658       4.27143349       9.24766166
H        1.42687458       6.25091649       6.81397866
H        6.96164458       6.28335449       7.93657866
H        6.53625758       7.73463549       7.06063966
H        0.85539258       6.37464749       9.47396866
H        1.99698558       7.50896449       9.11274166
H        5.97882958       3.81080449       3.47485466
H        2.65627158       7.09875949       4.56540266
H        1.33250258       7.14531549       2.70613766
C        3.28331758       4.54538749       2.98882166
C        4.05237958       4.37299449       4.29880266
C        7.37461758       7.22839349       7.55692766
C        4.02795658       5.08969849       1.78673166
C        3.04779858       3.89798449       5.37659666
C        2.02970358       8.00157649       4.53536866
C        7.44368358       7.21289849       4.23180266
C        7.80821558       6.21713549       5.32217766
C        0.68545358       6.92522749       6.35938866
N        4.89641958       4.04971249       1.13893466
N        1.01382758       7.39872749       9.43860166
N        4.20103758       4.29321349       9.50402566
