50
Lattice="8.586232565061687 0.0040018574174103 0.6573708624735881 0.0024096295327364 8.462442208787005 -0.0646443383483496 2.6326133054042513 -0.214664095149259 29.874719266816832" Properties=species:S:1:pos:R:3 pbc="T T T"
H        2.78780181       8.88739410       4.46726183
H        5.12230181       6.50677910       7.12944883
H        5.48833281       6.48968810       8.85419383
H        6.79238281       6.31566910       7.67966583
H        7.30859081       5.54508810      10.11678383
H        6.49407481       8.57073310       4.39102083
H        4.04221881       8.86416310      14.04771083
H        7.57252681       7.33453810       3.77624583
H        7.94485381       8.17457410       6.45586283
H        3.47096981       7.94159610       7.89790183
H        5.85199181       4.77293910      10.73463783
H        2.77655681       6.74013710       9.86766083
H        8.40372581       7.89549710       9.79336083
H        6.69144881       4.27939210      13.00818683
H        8.19093581       5.16552910      12.66840083
H        8.30337681       7.44215510       1.49264483
H        6.31034881       8.67438010       2.00302083
H        6.88831581       5.42392910       5.48643883
H        4.40755681       5.34666110       5.60040483
H        2.00241281       6.10619910       6.79506783
H        3.01002681       4.78195910      -0.03232217
H        4.75958481       4.27440310       1.49167883
H        2.53149781       4.39144710       3.61167683
H        3.78216581       5.61816410       3.38685483
H        1.86977981       4.90455310       1.17638683
H        5.22718281       8.94245110      12.88099983
H        4.60769081       8.36023710      10.39685783
H        3.72395481       7.14571810      12.38729983
H        3.61060481       8.92846610       6.01863283
H        7.85620481       4.34057510       6.49901083
H        4.11488281       4.58167710       9.56276683
H        3.38332781       4.79763410       7.98090583
H        3.11547181       6.01916910       1.09395783
H        8.83216481       6.25749610       7.57151683
H        2.96969181       7.39841810       5.38808883
C        2.58678281       8.34441710       8.40444283
C        4.49454081       4.25134210       5.62006783
C        2.56918681       7.81790310       9.84090083
C        3.57482381       8.55473510      10.72162083
C        3.40369981       8.17129010      12.18006983
C        2.77619681       8.47348110       5.47856183
C        5.55703181       4.51709510       7.94321583
C        6.81302581       4.57404910      10.24320783
C        4.16001081       4.25239410       8.52206783
C        6.99334281       4.38786610       5.82763783
C        5.75622681       6.04109110       7.89125083
C        3.57179481       4.54341510       3.28617783
C        7.69666781       4.19353610      12.58175983
N        2.87981181       5.01866610       0.96245683
N        4.21054381       9.07208210      13.05276183
