17
Lattice="7.832991738070332 0.0323330564997171 0.1201320732842858 0.0411953494170351 7.509646232374507 0.2416305401068099 0.4718692679860514 0.6952029419602177 15.001532836766355" Properties=species:S:1:pos:R:3 pbc="T T T"
H        3.16031167       5.02508612       5.46682927
H        1.24834967       7.37281912       5.32718027
H        3.61764467       4.75658612       0.57765327
H        2.40346267       8.52503312       4.97152027
H        1.57661567       8.52443512       2.24373827
H        3.35168067       5.09674712       2.85210827
H        5.66041567       4.80887112       3.90856027
H        6.45982967       7.73597612       2.68888527
H        0.99986067       7.06086412       3.05397327
H        4.65662467       5.25595012       6.17737927
H        7.74676167       6.33173612       1.12874327
H        6.53029567       7.21511812       0.42588227
H        4.17622967       6.25572212       4.94097427
C        4.74236267       4.34213612       4.28181127
N        7.43899667       7.29917812       0.90042027
N        1.39526167       8.39067012       5.18501427
N        4.14320267       5.27098912       5.27970527
