41
Lattice="8.002111369151493 0.0055952486871728 0.00628852219856 0.0143508730720785 8.229754575110958 0.1554913792372441 0.0923667558259735 0.5917826767861889 23.215045921769192" Properties=species:S:1:pos:R:3 pbc="T T T"
H        3.41133844       5.36769229       8.19635669
H        4.32969044       5.03900229      14.18456169
H        2.77913744       4.58233129      12.43088969
H        3.38896144       5.21273529       5.94621969
H        3.88769144       5.90297729      10.62560369
H        4.27432944       4.51252629       0.07774569
H        7.74751644       6.56600429       4.86776069
H        6.41376644       7.88483929       2.23259669
H        1.18357344       8.39565629       1.25051669
H        1.05138844       8.34880129       3.74509169
H        0.85620544       8.48429729       6.16962469
H        5.55870744       4.60754929       1.14954469
H        5.29278144       4.82562129      10.67000469
H        5.25949544       4.35316329       3.55179869
H        4.38514544       6.32114929      13.09508169
H        5.75289844       6.75913729       8.61702969
H        1.35045244       6.46852329       7.50985269
H        0.11617244       5.75402529       8.57373169
H        4.31764144       5.76680129       1.18501369
H        7.97952144       5.57663629       6.82575769
H        5.65392744       6.54585829       6.86413069
H        7.99376444       7.13511529      10.31467169
H        5.35177944       8.14052129       7.58120469
H        7.77320944       6.73514329       2.26322069
H        3.87407944       5.45498529       3.54190769
H        6.56286444       8.17061829      10.32133869
H        4.95624344       4.53463929       8.29948169
H        0.41457544       7.81232029      12.76104469
H        4.94762044       4.39163529       5.94152069
H        5.62107644       5.18013029      13.11817369
H        6.27951044       7.54759729       4.80568369
C        5.97137844       7.23996429       7.65420169
C        7.64264744       8.15773529      10.10132369
C        7.50109644       7.79556929       2.36971869
C        7.46240344       7.57259729       7.53428669
C        0.27241844       6.26953229       7.61511769
C        4.16166244       4.39377129       3.44029669
C        4.19774144       4.85884729      10.80375669
C        7.37708944       7.60415229       4.89494769
N        4.58817544       5.30363129      13.21629069
N        4.53160644       4.75514929       1.05049869
