35
Lattice="7.587614097595571 0.0445216768835496 0.3310532706577523 0.0657379603974099 7.737908108527144 -0.6039777845475542 0.8935600111139436 -1.323738476538339 15.823315129361925" Properties=species:S:1:pos:R:3 pbc="T T T"
H        5.90977298       4.84222205       3.82336311
H        6.67048898       3.95500705       8.10492211
H        6.16190898       3.37205805      10.31011011
H        1.75360198       5.15944505       7.18978411
H        8.31231698       5.13197905       9.68788811
H        3.29019598       4.45891405       6.47738511
H        5.78394698       4.96136705       6.30561511
H        0.49282898       6.71642005       1.14891811
H        6.97421298       6.10008405       7.88167111
H        7.46021898       5.56027505       5.61234311
H        4.51714098       4.68016605       8.51433911
H        3.03030398       3.82039905       3.92996311
H        5.11938598       4.10512505       1.70038611
H        3.71281098       5.16551105       1.90767511
H        4.50206798       5.67383705       4.47457711
H        7.30413398       3.33066005       5.51684711
H        3.64535898       6.62839705       7.33181911
H        3.40797998       7.90289205       5.36080911
H        2.18432898       5.69070805       5.17825311
H        2.70383898       6.95191305       3.16122711
H        1.31796998       5.87368805       3.06899911
H        2.46913598       5.30348205       9.44842911
H        3.82123798       3.07604905       8.65035011
C        4.97280898       4.68519505       4.37543011
C        4.09918498       4.15890405       2.09183111
C        4.06418398       3.77621905       3.55654911
C        5.30555898       4.13767105       5.76099811
C        4.10050798       3.73841405       6.60471711
C        5.97157798       3.11083205       8.21157211
C        1.53414898       5.81181705       9.17259611
C        1.56086098       6.12240205       7.67990311
C        2.66469798       7.12087105       7.26638211
C        1.66574498       6.64787005       5.01851811
C        1.67056898       6.81859405       3.50312511
C        4.53781198       3.67406605       8.07373211
