23
Lattice="7.949033504504712 -0.0437911387219462 0.4373749950507758 -0.0362562164629982 7.686235945920005 0.1058014103065905 1.6923166926343702 0.5096036078304662 21.858931305094295" Properties=species:S:1:pos:R:3 pbc="T T T"
H        0.69814989       7.06866297       2.58174071
H        3.86641489       5.03349297       2.88154371
H        5.29760689       4.65353797       1.93315571
H        7.26743189       6.38026697       1.29781871
H        7.67976589       5.15693697       5.97290571
H        5.86167289       7.21779197       0.91172371
H        3.77281389       8.19026397       6.45362371
H        5.59200489       5.82400997       4.46348571
H        6.09504189       4.65046897       7.77248771
H        3.99279889       4.10776497       0.05290071
H        2.48661889       4.29651997       0.77760471
H        4.82822789       4.69420297       6.65800571
H        1.70706889       7.24836497       4.55453771
H        5.75608889       6.04386597       6.88825571
H        6.30920389       7.96261697       3.01629471
H        2.55943989       7.06930397       6.67544071
H        6.98305889       5.04921397       3.71191571
C        4.55986689       4.22442997       2.62545971
C        6.16402989       4.88559397       4.41884271
C        6.75803189       4.59875497       5.78552671
N        6.87446489       7.32240197       1.10995671
N        5.79538689       5.00927297       6.85341971
N        2.78103089       8.07754697       6.74938371
