24
Lattice="8.219805148783605 0.0167740332815465 0.0055229540505884 0.0346093687596472 7.919890821425072 -0.4923064351861585 0.1557243465397211 -1.0565939243579716 18.639994451802426" Properties=species:S:1:pos:R:3 pbc="T T T"
H        6.43408268       3.90265741       3.24571578
H        2.14494968       4.34243241       3.39389578
H        2.40853568       6.77069341       5.44348378
H        4.78115468       4.16349141       8.03466878
H        0.99617768       7.16844741       8.95722878
H        2.45421168       3.91234341       1.08132978
H        3.57911868       4.06752341      -0.12989122
H        5.32398068       4.69218441       1.33179178
H        3.90120868       5.71021141       1.65765078
H        6.38194968       7.52945341       5.57097678
H        0.57458868       5.55621441       7.18280478
H        7.42583168       6.66874941       7.49931778
H        2.10987368       7.29982941       7.72939678
H        2.52177468       7.78085641       3.18552878
C        1.49756368       7.15749341       4.98021578
C        7.33722968       7.58807541       5.04478578
C        5.48766768       3.77352241       3.77511478
C        1.56431868       7.72176441       3.70827278
C        3.08396868       4.01342741       3.84675178
C        4.29479668       4.17085441       3.15906378
C        4.30799668       4.69289941       1.74701378
C        0.22219468       6.59284241       7.08346478
N        1.10117568       7.43932241       7.95845978
N        3.46934168       3.80713041       0.86902278
