40
Lattice="8.622425120802319 -0.0320518262670231 -0.3463601952509738 -0.0459669161703021 8.63558532403867 -0.0826855118816226 -0.8759648293560989 -0.1541057100453803 16.42779841031663" Properties=species:S:1:pos:R:3 pbc="T T T"
H        7.10226954       8.50273866       0.76839424
H        4.98926754       5.49105866       3.37573924
H        4.45855154       5.82230966       0.90267324
H        5.95349054       5.09793266       1.05465324
H        0.07267654       6.45156466       5.71465724
H        3.25931354       5.37462166       3.08840124
H        1.68102154       5.08342566       4.68631424
H        7.06330554       6.57149366       4.73260224
H        1.15047654       7.01880866       7.61043824
H        4.86899054       4.48805366      -0.04134276
H        6.57031054       8.50404866       8.16812324
H       -0.02955346       7.35887566       3.51739124
H        3.21942754       5.33413466       8.29550224
H        7.09454054       8.23946366       3.12255224
H        1.87160654       8.34669666       6.69499824
H        7.30723654       6.35773266       6.46167624
H        5.90977054       8.79946266       4.69178424
H        3.10370854       5.36228766      10.84705324
H        7.67156354       7.14153066       8.35417724
H        3.72406254       6.46992466       6.74493124
H        3.56349654       6.60411166       5.00120524
H        1.52020754       5.10135566       6.44310624
H        5.66540954       8.40563866       6.38166524
H        5.70487654       4.93608866       7.62662524
H        1.76786054       8.44626966       8.44297224
H        7.68075554       7.07818566      10.90946324
H        6.35255254       8.25688666      10.85193924
H       -0.24853846       7.46841766       1.11995424
H        5.08863154       6.06622866       5.69997524
C        4.00443354       5.99831566       5.79915724
C        6.33813154       8.92071166       5.69247724
C        7.71147954       6.84438666       5.57066924
C        4.16896354       4.77749366       3.22696624
C        3.50858254       4.54557466       5.72363624
C        3.06235954       4.26955666      10.79232824
C        1.98116354       4.57218766       5.60707924
C        1.23416954       8.10766466       7.54972124
C        7.44152754       8.14388766      10.83467024
C        3.21498354       4.23698966       8.26646824
N        4.94538054       4.91048366       0.89425724
