18
Lattice="8.419637848144541 -0.0013414743305519 -0.1766228274605258 0.0002929106796574 8.860503226731897 -0.0002792185894406 -0.513924482281547 0.0023877808217346 23.55294259649344" Properties=species:S:1:pos:R:3 pbc="T T T"
H        4.36052646       4.50149761      -0.00013961
H        4.62375146       6.08236461       0.53388939
H        5.68825646       6.23635361       2.94987439
H        0.76007346       7.59898561       5.36120439
H        1.47583446       7.04951461       3.03860239
H        1.66113446       8.32643261       0.69688239
H        4.97438346       5.68518561       5.27265239
H        6.40435946       9.39683461       5.99696239
H        0.41592246       7.20806961       0.62206339
H        5.86893746       4.96385661       0.60697939
C        0.35432546       8.14444361       4.51489439
C        0.75400346       7.83931261       3.21976739
C        0.21353246       8.56320661       2.16545839
C        4.56675846       5.14144361       4.42617539
C        4.96539846       5.44757861       3.13092439
C        4.42246546       4.72586361       2.07641939
N        4.83488646       5.07746661       0.72032339
N        0.62707446       8.21264961       0.80942939
