14
Lattice="7.556391641194209 -0.002145980777452 -0.0622253851285435 0.0009094314499568 7.498958967425223 -0.4636054804109602 0.0851422053365666 -0.5692144709083975 10.461733782399875" Properties=species:S:1:pos:R:3 pbc="T T T"
H        6.07706372       5.43198548       3.64060826
H        6.40338372       6.18740348       1.28094626
H        1.60446872       7.82363048       0.29617326
H        4.08020772       3.77757648       0.02780426
H        2.27854272       5.21981748       2.87441026
H        2.48727172       4.06970248       0.52025826
H        3.61000872       5.31284648       0.60885326
H        2.64621472       4.47017248       5.22999426
C        6.97797272       6.62638448       2.08907326
C        3.76130572       3.86522548       2.09250526
C        3.20851172       4.03111648       4.41325326
C        6.80232072       6.20358748       3.40036726
C        3.01013972       4.45104848       3.10430126
N        3.49252372       4.27533648       0.72178826
