24
Lattice="8.6523419804056 -0.000195243141243 -0.029349987946206 0.000121291345617 8.719733551884794 -0.0031198996404455 -0.1039934552702886 -0.0067985356649564 24.61438000070978" Properties=species:S:1:pos:R:3 pbc="T T T"
H        7.42645865       8.78448078       7.76564705
H        7.08708965       8.18600878       1.29078405
H        8.13826965       8.06035478      -0.00155995
H        8.28842665       7.00807878       1.28824205
H        4.34076465       5.55440878       7.82166105
H        1.74769465       7.33729478       3.40346605
H        2.76178965       4.93340778       1.30990105
H        1.44896565       7.10777578       5.84880305
H        5.75949665       5.99729878       5.85202805
H        0.03199465       7.52455978       7.82588205
H        1.70934065       9.28236578       7.84154305
H        3.95637365       6.11839178       1.30888405
H        3.81106365       5.06843978       0.01705805
H        5.70083465       4.45677078       1.35568905
H        6.06336165       5.79210778       3.40513005
H        1.36983965       8.68529078       1.36542605
C        0.84715165       7.82192278       5.29258205
C        1.01161565       7.94790078       3.91929705
C        5.16451365       5.28288078       5.28861305
C        5.33179165       5.17057878       3.91444705
C        4.23106865       4.48067478       5.94924605
C        4.09623165       4.56014078       7.43924705
N        8.07007865       7.98777778       1.02389505
N        3.74327365       5.13800978       1.04269805
