32
Lattice="8.660136986791585 0.063013028470957 -0.0218634971566121 0.0694720988403673 9.128835103586427 0.0220283977520117 -0.0399306342024408 0.0541169634831292 23.99589520710381" Properties=species:S:1:pos:R:3 pbc="T T T"
H        6.56437205       8.24309755       3.82934220
H        3.41331205       6.44420555       2.59168720
H        7.45012305       7.01226455       2.91751320
H        0.10088905       7.49437155       0.93840120
H        1.79240805       9.98979655       6.81757720
H        1.39191805       8.55411055       0.93413420
H        0.56716605       8.20339055       6.01698120
H        3.05419705       4.89631755       6.83380120
H        2.61591105       5.52819755       4.68114720
H        3.99583505       6.65592555       4.68194620
H        6.27433705       5.81804955       3.97120220
H        5.14060205       6.37773955       2.24288120
H        4.60306605       5.55649355       6.88373020
H        7.35389505       9.41549055       1.83597020
H        2.17874205       8.39809455       3.09462820
H        3.95189505       5.74209755       1.10241820
H        6.59608905      10.23666255       4.31688620
H        2.26524305      10.04753155       4.57349920
H        6.17039505       5.31922855       5.65292820
H        7.72877405       7.17554055       4.64503620
H        1.55152705       7.50454655       4.47789520
H        1.21364805       6.92291355       2.86142120
H        7.69797405       9.10451455       6.28955020
H        3.29589105       6.53838755       6.82846320
C        8.67627305       8.70104155       3.43187820
C        7.53108505       7.74021355       3.73033320
C        4.20094105       5.82331955       2.16685020
C        3.66075605       5.65775055       4.97054020
C        6.00322005       4.99271355       4.62097320
C        1.31956105       7.83220655       3.46256620
N        0.36063405       8.50161955       0.93028820
N        3.66317005       5.64344155       6.46718320
