24
Lattice="7.749019716924696 0.0026894408635854 -0.1370813951578675 0.001816962932929 7.6658964479765075 -0.1150645072018542 -0.0753106612396672 -0.1128460015072663 17.559326869863842" Properties=species:S:1:pos:R:3 pbc="T T T"
H        6.63641448       7.74689622       1.19704575
H        7.66664148       6.41563922       1.20332775
H        1.61400348       6.33441122       3.66139975
H        3.29361848       4.21016122       9.24039175
H        1.85908248       7.74245322       1.57969275
H        5.59931148       5.29447922       6.17222575
H        0.99802448       6.25760122       6.03401575
H        5.97628848       3.80624622       1.43970375
H        2.24347748       4.13943622       7.95264975
H        5.48847348       5.81702122       3.75011275
H        3.42512748       5.33227122       8.00787275
H        1.40974348       7.60772822       8.14797375
H        6.23945248       7.75358222       7.43012875
H        0.29140048       6.36391922       8.19756375
H        3.04934448       4.31285722       1.42033675
H        4.34019448       5.53081322       1.60054675
C        4.88235148       5.01358122       4.16476775
C        4.04046948       4.27288522       3.33179675
C        4.93936448       4.72589422       5.52267875
C        0.67371548       7.10421222       5.43426475
C        1.02196448       7.14180922       4.08695775
C        4.03113748       4.51437122       1.85444175
N        3.22605248       4.33259122       8.22344575
N        0.40917548       7.39032022       8.32075275
